7
Lattice="66.2574 0.0 0.0 0.0 66.2574 0.0 0.0 0.0 66.2574" Properties=species:S:1:index:I:1:pos:R:3:cluster_id:I:1:order_parameter:R:1:center_of_mass:R:3:gyration_radius:R:1
Si 18553 28.00540 28.72530 47.97910 26788 0.00000 31.86376 26.47770 46.06444 3.6413217752091405
Si 24436 29.81850 26.81340 48.64210 26788 0.00000 31.86376 26.47770 46.06444 3.6413217752091405
Si 22756 31.75810 26.94660 46.57520 26788 0.00000 31.86376 26.47770 46.06444 3.6413217752091405
Si 19982 32.04140 27.27570 43.51600 26788 0.00000 31.86376 26.47770 46.06444 3.6413217752091405
Si 26788 34.12810 25.52900 46.39850 26788 0.00000 31.86376 26.47770 46.06444 3.6413217752091405
Si 25825 35.72850 24.19970 47.83120 26788 0.00000 31.86376 26.47770 46.06444 3.6413217752091405
Si 21981 31.56630 25.85420 41.50900 26788 0.00000 31.86376 26.47770 46.06444 3.6413217752091405
6
Lattice="66.2574 0.0 0.0 0.0 66.2574 0.0 0.0 0.0 66.2574" Properties=species:S:1:index:I:1:pos:R:3:cluster_id:I:1:order_parameter:R:1:center_of_mass:R:3:gyration_radius:R:1
Si 18424 23.28650 19.70440 29.09260 26426 0.00000 23.32240 20.72107 29.84547 2.916954306197552
Si 24506 24.17160 18.17690 32.14930 26426 0.00000 23.32240 20.72107 29.84547 2.916954306197552
Si 19266 23.09230 21.71090 27.70300 26426 0.00000 23.32240 20.72107 29.84547 2.916954306197552
Si 26983 23.24730 22.51520 30.90340 26426 0.00000 23.32240 20.72107 29.84547 2.916954306197552
Si 18694 21.62460 17.79680 30.01560 26426 0.00000 23.32240 20.72107 29.84547 2.916954306197552
Si 26426 24.51210 24.42220 29.20890 26426 0.00000 23.32240 20.72107 29.84547 2.916954306197552
5
Lattice="66.2574 0.0 0.0 0.0 66.2574 0.0 0.0 0.0 66.2574" Properties=species:S:1:index:I:1:pos:R:3:cluster_id:I:1:order_parameter:R:1:center_of_mass:R:3:gyration_radius:R:1
Si 20618 14.01440 46.89020 8.44048 26254 0.00000 14.91088 48.75260 9.74379 3.7188400285379304
Si 22617 14.49600 44.98010 6.46284 26254 0.00000 14.91088 48.75260 9.74379 3.7188400285379304
Si 26254 15.16770 49.46210 8.45654 26254 0.00000 14.91088 48.75260 9.74379 3.7188400285379304
Si 25447 15.70680 50.47800 11.15830 26254 0.00000 14.91088 48.75260 9.74379 3.7188400285379304
Si 24399 15.16950 51.95260 14.20080 26254 0.00000 14.91088 48.75260 9.74379 3.7188400285379304
5
Lattice="66.2574 0.0 0.0 0.0 66.2574 0.0 0.0 0.0 66.2574" Properties=species:S:1:index:I:1:pos:R:3:cluster_id:I:1:order_parameter:R:1:center_of_mass:R:3:gyration_radius:R:1
Si 21753 8.51976 33.12870 6.62377 26630 0.00000 8.56432 33.91480 4.57227 2.9212298398845644
Si 23461 9.42761 35.14150 4.31136 26630 0.00000 8.56432 33.91480 4.57227 2.9212298398845644
Si 26630 6.74212 32.77470 8.11403 26630 0.00000 8.56432 33.91480 4.57227 2.9212298398845644
Si 24276 8.78458 32.99330 1.93070 26630 0.00000 8.56432 33.91480 4.57227 2.9212298398845644
Si 21961 9.34754 35.53580 1.88150 26630 0.00000 8.56432 33.91480 4.57227 2.9212298398845644
4
Lattice="66.2574 0.0 0.0 0.0 66.2574 0.0 0.0 0.0 66.2574" Properties=species:S:1:index:I:1:pos:R:3:cluster_id:I:1:order_parameter:R:1:center_of_mass:R:3:gyration_radius:R:1
Si 19405 61.48440 15.65500 45.26090 24181 0.00000 61.24582 16.95070 45.70860 2.006010182395644
Si 21047 63.07080 16.79690 47.39560 24181 0.00000 61.24582 16.95070 45.70860 2.006010182395644
Si 22421 59.43740 17.03960 44.08960 24181 0.00000 61.24582 16.95070 45.70860 2.006010182395644
Si 24181 60.99070 18.31130 46.08830 24181 0.00000 61.24582 16.95070 45.70860 2.006010182395644
4
Lattice="66.2574 0.0 0.0 0.0 66.2574 0.0 0.0 0.0 66.2574" Properties=species:S:1:index:I:1:pos:R:3:cluster_id:I:1:order_parameter:R:1:center_of_mass:R:3:gyration_radius:R:1
Si 19948 15.49630 13.88570 15.11650 24360 0.00000 12.69335 15.87927 17.38867 3.090950955005595
Si 20021 13.93210 15.27770 16.80580 24360 0.00000 12.69335 15.87927 17.38867 3.090950955005595
Si 23770 11.00840 16.05980 18.24430 24360 0.00000 12.69335 15.87927 17.38867 3.090950955005595
Si 24360 10.33660 18.29390 19.38810 24360 0.00000 12.69335 15.87927 17.38867 3.090950955005595
4
Lattice="66.2574 0.0 0.0 0.0 66.2574 0.0 0.0 0.0 66.2574" Properties=species:S:1:index:I:1:pos:R:3:cluster_id:I:1:order_parameter:R:1:center_of_mass:R:3:gyration_radius:R:1
Si 20322 58.61290 27.89720 63.22030 23405 0.00000 58.30917 25.12218 61.29758 2.6734318376620347
Si 23405 58.90680 26.39480 60.98810 23405 0.00000 58.30917 25.12218 61.29758 2.6734318376620347
Si 20344 56.83300 24.32730 60.53210 23405 0.00000 58.30917 25.12218 61.29758 2.6734318376620347
Si 24972 58.88400 21.86940 60.44980 23405 0.00000 58.30917 25.12218 61.29758 2.6734318376620347
4
Lattice="66.2574 0.0 0.0 0.0 66.2574 0.0 0.0 0.0 66.2574" Properties=species:S:1:index:I:1:pos:R:3:cluster_id:I:1:order_parameter:R:1:center_of_mass:R:3:gyration_radius:R:1
Si 23871 68.20700 56.60630 17.46180 26307 0.00000 69.21740 55.24700 16.56308 2.5764266277916303
Si 24070 67.68870 54.82790 18.94700 26307 0.00000 69.21740 55.24700 16.56308 2.5764266277916303
Si 26307 69.98580 54.77010 16.52240 26307 0.00000 69.21740 55.24700 16.56308 2.5764266277916303
Si 24090 70.98809 54.78370 13.32110 26307 0.00000 69.21740 55.24700 16.56308 2.5764266277916303
3
Lattice="66.2574 0.0 0.0 0.0 66.2574 0.0 0.0 0.0 66.2574" Properties=species:S:1:index:I:1:pos:R:3:cluster_id:I:1:order_parameter:R:1:center_of_mass:R:3:gyration_radius:R:1
Si 18721 25.77510 8.83027 43.56540 23230 0.00000 23.24710 6.84367 43.19240 2.7034515716024945
Si 23230 23.50880 6.73157 43.04240 23230 0.00000 23.24710 6.84367 43.19240 2.7034515716024945
Si 21971 20.45740 4.96917 42.96940 23230 0.00000 23.24710 6.84367 43.19240 2.7034515716024945
3
Lattice="66.2574 0.0 0.0 0.0 66.2574 0.0 0.0 0.0 66.2574" Properties=species:S:1:index:I:1:pos:R:3:cluster_id:I:1:order_parameter:R:1:center_of_mass:R:3:gyration_radius:R:1
Si 18930 50.42610 61.24260 14.22750 26900 0.00000 51.17430 62.64180 14.59873 1.5333473260231085
Si 21634 50.52860 64.04360 14.73830 26900 0.00000 51.17430 62.64180 14.59873 1.5333473260231085
Si 26900 52.56820 62.63920 14.83040 26900 0.00000 51.17430 62.64180 14.59873 1.5333473260231085
3
Lattice="66.2574 0.0 0.0 0.0 66.2574 0.0 0.0 0.0 66.2574" Properties=species:S:1:index:I:1:pos:R:3:cluster_id:I:1:order_parameter:R:1:center_of_mass:R:3:gyration_radius:R:1
Si 19234 15.22450 18.14700 13.27310 24749 0.00000 17.24923 17.85543 15.57433 2.3798314534156964
Si 19640 17.83750 18.13020 15.71080 24749 0.00000 17.24923 17.85543 15.57433 2.3798314534156964
Si 24749 18.68570 17.28910 17.73910 24749 0.00000 17.24923 17.85543 15.57433 2.3798314534156964
3
Lattice="66.2574 0.0 0.0 0.0 66.2574 0.0 0.0 0.0 66.2574" Properties=species:S:1:index:I:1:pos:R:3:cluster_id:I:1:order_parameter:R:1:center_of_mass:R:3:gyration_radius:R:1
Si 19364 35.75190 4.89853 32.54740 22277 0.00000 34.11160 4.17868 32.72440 1.6055884359808859
Si 21534 33.50120 4.95120 33.14510 22277 0.00000 34.11160 4.17868 32.72440 1.6055884359808859
Si 22277 33.08170 2.68630 32.48070 22277 0.00000 34.11160 4.17868 32.72440 1.6055884359808859
3
Lattice="66.2574 0.0 0.0 0.0 66.2574 0.0 0.0 0.0 66.2574" Properties=species:S:1:index:I:1:pos:R:3:cluster_id:I:1:order_parameter:R:1:center_of_mass:R:3:gyration_radius:R:1
Si 19538 19.48020 52.71040 54.97190 24727 0.00000 21.07040 50.17150 55.47113 2.521351066833459
Si 21101 20.60250 49.91240 55.76380 24727 0.00000 21.07040 50.17150 55.47113 2.521351066833459
Si 24727 23.12850 47.89170 55.67770 24727 0.00000 21.07040 50.17150 55.47113 2.521351066833459
3
Lattice="66.2574 0.0 0.0 0.0 66.2574 0.0 0.0 0.0 66.2574" Properties=species:S:1:index:I:1:pos:R:3:cluster_id:I:1:order_parameter:R:1:center_of_mass:R:3:gyration_radius:R:1
Si 19584 22.69830 48.86180 10.99640 21094 0.00000 23.71027 48.88463 10.67035 2.217382932523033
Si 20402 22.60570 49.28210 8.56205 21094 0.00000 23.71027 48.88463 10.67035 2.217382932523033
Si 21094 25.82680 48.51000 12.45260 21094 0.00000 23.71027 48.88463 10.67035 2.217382932523033
3
Lattice="66.2574 0.0 0.0 0.0 66.2574 0.0 0.0 0.0 66.2574" Properties=species:S:1:index:I:1:pos:R:3:cluster_id:I:1:order_parameter:R:1:center_of_mass:R:3:gyration_radius:R:1
Si 19663 15.87200 39.10670 22.18600 22776 0.00000 15.73757 38.02973 21.22590 1.5912125097268144
Si 25501 17.05880 37.06320 21.08070 22776 0.00000 15.73757 38.02973 21.22590 1.5912125097268144
Si 22776 14.28190 37.91930 20.41100 22776 0.00000 15.73757 38.02973 21.22590 1.5912125097268144
3
Lattice="66.2574 0.0 0.0 0.0 66.2574 0.0 0.0 0.0 66.2574" Properties=species:S:1:index:I:1:pos:R:3:cluster_id:I:1:order_parameter:R:1:center_of_mass:R:3:gyration_radius:R:1
Si 19872 49.87140 33.21740 42.30430 26515 0.00000 50.12917 33.84973 44.63100 2.269700520137208
Si 26515 51.38690 34.08250 44.36740 26515 0.00000 50.12917 33.84973 44.63100 2.269700520137208
Si 20606 49.12920 34.24930 47.22130 26515 0.00000 50.12917 33.84973 44.63100 2.269700520137208
3
Lattice="66.2574 0.0 0.0 0.0 66.2574 0.0 0.0 0.0 66.2574" Properties=species:S:1:index:I:1:pos:R:3:cluster_id:I:1:order_parameter:R:1:center_of_mass:R:3:gyration_radius:R:1
Si 20360 55.42450 43.32580 54.79040 24281 0.00000 56.15510 44.27213 55.57520 1.42177900142353
Si 25779 57.14300 45.08060 54.96850 24281 0.00000 56.15510 44.27213 55.57520 1.42177900142353
Si 24281 55.89780 44.41000 56.96670 24281 0.00000 56.15510 44.27213 55.57520 1.42177900142353
3
Lattice="66.2574 0.0 0.0 0.0 66.2574 0.0 0.0 0.0 66.2574" Properties=species:S:1:index:I:1:pos:R:3:cluster_id:I:1:order_parameter:R:1:center_of_mass:R:3:gyration_radius:R:1
Si 20475 39.98360 41.07590 18.74250 20748 0.00000 40.62163 40.30573 18.62047 1.8910422117622505
Si 24274 42.42150 40.77750 19.85390 20748 0.00000 40.62163 40.30573 18.62047 1.8910422117622505
Si 20748 39.45980 39.06380 17.26500 20748 0.00000 40.62163 40.30573 18.62047 1.8910422117622505
3
Lattice="66.2574 0.0 0.0 0.0 66.2574 0.0 0.0 0.0 66.2574" Properties=species:S:1:index:I:1:pos:R:3:cluster_id:I:1:order_parameter:R:1:center_of_mass:R:3:gyration_radius:R:1
Si 20936 25.98830 54.88580 43.63590 25138 0.00000 27.30537 56.23290 42.32193 1.928734819627739
Si 25138 27.96210 56.04100 42.59990 25138 0.00000 27.30537 56.23290 42.32193 1.928734819627739
Si 23503 27.96570 57.77190 40.73000 25138 0.00000 27.30537 56.23290 42.32193 1.928734819627739
3
Lattice="66.2574 0.0 0.0 0.0 66.2574 0.0 0.0 0.0 66.2574" Properties=species:S:1:index:I:1:pos:R:3:cluster_id:I:1:order_parameter:R:1:center_of_mass:R:3:gyration_radius:R:1
Si 21491 9.83874 61.63240 35.08110 23215 0.00000 9.91099 63.70840 36.23077 2.1255956131347724
Si 23215 9.22724 63.97640 35.60620 23215 0.00000 9.91099 63.70840 36.23077 2.1255956131347724
Si 22939 10.66700 65.51640 38.00500 23215 0.00000 9.91099 63.70840 36.23077 2.1255956131347724
3
Lattice="66.2574 0.0 0.0 0.0 66.2574 0.0 0.0 0.0 66.2574" Properties=species:S:1:index:I:1:pos:R:3:cluster_id:I:1:order_parameter:R:1:center_of_mass:R:3:gyration_radius:R:1
Si 21726 60.99730 57.28010 26.97880 24203 0.00000 59.99220 55.71280 25.02673 2.130725509199989
Si 23113 59.23100 55.11510 25.16900 24203 0.00000 59.99220 55.71280 25.02673 2.130725509199989
Si 24203 59.74830 54.74320 22.93240 24203 0.00000 59.99220 55.71280 25.02673 2.130725509199989
3
Lattice="66.2574 0.0 0.0 0.0 66.2574 0.0 0.0 0.0 66.2574" Properties=species:S:1:index:I:1:pos:R:3:cluster_id:I:1:order_parameter:R:1:center_of_mass:R:3:gyration_radius:R:1
Si 22012 20.23140 50.55130 36.64270 26442 0.00000 17.64450 51.48470 35.99473 2.4266735686715033
Si 22209 16.87100 50.44630 36.22760 26442 0.00000 17.64450 51.48470 35.99473 2.4266735686715033
Si 26442 15.83110 53.45650 35.11390 26442 0.00000 17.64450 51.48470 35.99473 2.4266735686715033
3
Lattice="66.2574 0.0 0.0 0.0 66.2574 0.0 0.0 0.0 66.2574" Properties=species:S:1:index:I:1:pos:R:3:cluster_id:I:1:order_parameter:R:1:center_of_mass:R:3:gyration_radius:R:1
Si 24559 7.51628 61.91930 8.02309 26174 0.00000 6.53299 62.38683 6.83873 2.2567109677384716
Si 27110 4.16299 62.83390 7.70405 26174 0.00000 6.53299 62.38683 6.83873 2.2567109677384716
Si 26174 7.91970 62.40730 4.78906 26174 0.00000 6.53299 62.38683 6.83873 2.2567109677384716
3
Lattice="66.2574 0.0 0.0 0.0 66.2574 0.0 0.0 0.0 66.2574" Properties=species:S:1:index:I:1:pos:R:3:cluster_id:I:1:order_parameter:R:1:center_of_mass:R:3:gyration_radius:R:1
Si 25778 5.20093 55.67540 6.42828 26160 0.00000 5.06126 57.35447 8.42356 2.22262201288878
Si 26160 4.94911 57.44030 8.10770 26160 0.00000 5.06126 57.35447 8.42356 2.22262201288878
Si 26124 5.03373 58.94770 10.73470 26160 0.00000 5.06126 57.35447 8.42356 2.22262201288878
2
Lattice="66.2574 0.0 0.0 0.0 66.2574 0.0 0.0 0.0 66.2574" Properties=species:S:1:index:I:1:pos:R:3:cluster_id:I:1:order_parameter:R:1:center_of_mass:R:3:gyration_radius:R:1
Si 18181 58.30570 4.64083 5.78870 18296 0.00000 59.61930 4.03662 5.03712 1.629566109996765
Si 18296 60.93290 3.43240 4.28555 18296 0.00000 59.61930 4.03662 5.03712 1.629566109996765
2
Lattice="66.2574 0.0 0.0 0.0 66.2574 0.0 0.0 0.0 66.2574" Properties=species:S:1:index:I:1:pos:R:3:cluster_id:I:1:order_parameter:R:1:center_of_mass:R:3:gyration_radius:R:1
Si 18221 27.83380 56.25590 13.18370 20610 0.00000 27.21845 56.97240 14.01985 1.2614177321569564
Si 20610 26.60310 57.68890 14.85600 20610 0.00000 27.21845 56.97240 14.01985 1.2614177321569564
2
Lattice="66.2574 0.0 0.0 0.0 66.2574 0.0 0.0 0.0 66.2574" Properties=species:S:1:index:I:1:pos:R:3:cluster_id:I:1:order_parameter:R:1:center_of_mass:R:3:gyration_radius:R:1
Si 18308 51.84790 6.89959 21.86970 27083 0.00000 52.52405 7.68518 23.27490 1.746112726809182
Si 27083 53.20020 8.47076 24.68010 27083 0.00000 52.52405 7.68518 23.27490 1.746112726809182
2
Lattice="66.2574 0.0 0.0 0.0 66.2574 0.0 0.0 0.0 66.2574" Properties=species:S:1:index:I:1:pos:R:3:cluster_id:I:1:order_parameter:R:1:center_of_mass:R:3:gyration_radius:R:1
Si 18440 21.50790 50.39540 27.06770 21908 0.00000 20.90480 50.71230 28.12950 1.2615761808150943
Si 21908 20.30170 51.02920 29.19130 21908 0.00000 20.90480 50.71230 28.12950 1.2615761808150943
2
Lattice="66.2574 0.0 0.0 0.0 66.2574 0.0 0.0 0.0 66.2574" Properties=species:S:1:index:I:1:pos:R:3:cluster_id:I:1:order_parameter:R:1:center_of_mass:R:3:gyration_radius:R:1
Si 18453 37.97050 7.66928 38.19710 25725 0.00000 37.20870 6.87129 38.68665 1.2069774076282465
Si 25725 36.44690 6.07329 39.17620 25725 0.00000 37.20870 6.87129 38.68665 1.2069774076282465
2
Lattice="66.2574 0.0 0.0 0.0 66.2574 0.0 0.0 0.0 66.2574" Properties=species:S:1:index:I:1:pos:R:3:cluster_id:I:1:order_parameter:R:1:center_of_mass:R:3:gyration_radius:R:1
Si 18511 18.82190 15.18770 24.64550 22359 0.00000 18.47875 15.46595 25.76260 1.2012857257954916
Si 22359 18.13560 15.74420 26.87970 22359 0.00000 18.47875 15.46595 25.76260 1.2012857257954916
2
Lattice="66.2574 0.0 0.0 0.0 66.2574 0.0 0.0 0.0 66.2574" Properties=species:S:1:index:I:1:pos:R:3:cluster_id:I:1:order_parameter:R:1:center_of_mass:R:3:gyration_radius:R:1
Si 18569 45.93090 31.77030 67.05360 19927 0.00000 46.93525 31.64990 68.38570 1.672634297298722
Si 19927 47.93960 31.52950 69.71780 19927 0.00000 46.93525 31.64990 68.38570 1.672634297298722
2
Lattice="66.2574 0.0 0.0 0.0 66.2574 0.0 0.0 0.0 66.2574" Properties=species:S:1:index:I:1:pos:R:3:cluster_id:I:1:order_parameter:R:1:center_of_mass:R:3:gyration_radius:R:1
Si 18915 26.41960 17.31720 62.55070 24666 0.00000 27.14915 18.14700 62.09685 1.1944835976270247
Si 24666 27.87870 18.97680 61.64300 24666 0.00000 27.14915 18.14700 62.09685 1.1944835976270247
2
Lattice="66.2574 0.0 0.0 0.0 66.2574 0.0 0.0 0.0 66.2574" Properties=species:S:1:index:I:1:pos:R:3:cluster_id:I:1:order_parameter:R:1:center_of_mass:R:3:gyration_radius:R:1
Si 19272 36.64430 15.35130 8.83338 23739 0.00000 35.84160 16.22555 8.88903 1.1881657424471557
Si 23739 35.03890 17.09980 8.94469 23739 0.00000 35.84160 16.22555 8.88903 1.1881657424471557
2
Lattice="66.2574 0.0 0.0 0.0 66.2574 0.0 0.0 0.0 66.2574" Properties=species:S:1:index:I:1:pos:R:3:cluster_id:I:1:order_parameter:R:1:center_of_mass:R:3:gyration_radius:R:1
Si 19417 47.80340 67.66740 54.29220 26245 0.00000 47.79570 66.69785 55.02640 1.2161974068793244
Si 26245 47.78800 65.72830 55.76060 26245 0.00000 47.79570 66.69785 55.02640 1.2161974068793244
2
Lattice="66.2574 0.0 0.0 0.0 66.2574 0.0 0.0 0.0 66.2574" Properties=species:S:1:index:I:1:pos:R:3:cluster_id:I:1:order_parameter:R:1:center_of_mass:R:3:gyration_radius:R:1
Si 19537 32.40710 59.23090 66.07130 26511 0.00000 33.36655 58.72530 65.57315 1.1934525901769175
Si 26511 34.32600 58.21970 65.07500 26511 0.00000 33.36655 58.72530 65.57315 1.1934525901769175
2
Lattice="66.2574 0.0 0.0 0.0 66.2574 0.0 0.0 0.0 66.2574" Properties=species:S:1:index:I:1:pos:R:3:cluster_id:I:1:order_parameter:R:1:center_of_mass:R:3:gyration_radius:R:1
Si 19783 21.35590 51.21560 50.15450 25055 0.00000 20.88675 50.77510 49.11705 1.2208376120516597
Si 25055 20.41760 50.33460 48.07960 25055 0.00000 20.88675 50.77510 49.11705 1.2208376120516597
2
Lattice="66.2574 0.0 0.0 0.0 66.2574 0.0 0.0 0.0 66.2574" Properties=species:S:1:index:I:1:pos:R:3:cluster_id:I:1:order_parameter:R:1:center_of_mass:R:3:gyration_radius:R:1
Si 19793 42.30050 8.09311 56.84720 22172 0.00000 41.72305 7.03464 56.24600 1.3473116504357856
Si 22172 41.14560 5.97617 55.64480 22172 0.00000 41.72305 7.03464 56.24600 1.3473116504357856
2
Lattice="66.2574 0.0 0.0 0.0 66.2574 0.0 0.0 0.0 66.2574" Properties=species:S:1:index:I:1:pos:R:3:cluster_id:I:1:order_parameter:R:1:center_of_mass:R:3:gyration_radius:R:1
Si 19796 52.35960 56.40830 20.98490 21735 0.00000 52.43580 55.62185 21.85130 1.1725864584328094
Si 21735 52.51200 54.83540 22.71770 21735 0.00000 52.43580 55.62185 21.85130 1.1725864584328094
2
Lattice="66.2574 0.0 0.0 0.0 66.2574 0.0 0.0 0.0 66.2574" Properties=species:S:1:index:I:1:pos:R:3:cluster_id:I:1:order_parameter:R:1:center_of_mass:R:3:gyration_radius:R:1
Si 19827 26.52730 13.00940 44.99460 24498 0.00000 26.56960 13.05745 43.12350 1.872194782200825
Si 24498 26.61190 13.10550 41.25240 24498 0.00000 26.56960 13.05745 43.12350 1.872194782200825
2
Lattice="66.2574 0.0 0.0 0.0 66.2574 0.0 0.0 0.0 66.2574" Properties=species:S:1:index:I:1:pos:R:3:cluster_id:I:1:order_parameter:R:1:center_of_mass:R:3:gyration_radius:R:1
Si 19891 60.54240 48.69120 35.09620 25159 0.00000 61.67910 49.19370 35.62670 1.3513043291575737
Si 25159 62.81580 49.69620 36.15720 25159 0.00000 61.67910 49.19370 35.62670 1.3513043291575737
2
Lattice="66.2574 0.0 0.0 0.0 66.2574 0.0 0.0 0.0 66.2574" Properties=species:S:1:index:I:1:pos:R:3:cluster_id:I:1:order_parameter:R:1:center_of_mass:R:3:gyration_radius:R:1
Si 20043 39.07690 13.05800 42.30990 23424 0.00000 38.90305 13.59220 43.43100 1.2539771419368078
Si 23424 38.72920 14.12640 44.55210 23424 0.00000 38.90305 13.59220 43.43100 1.2539771419368078
2
Lattice="66.2574 0.0 0.0 0.0 66.2574 0.0 0.0 0.0 66.2574" Properties=species:S:1:index:I:1:pos:R:3:cluster_id:I:1:order_parameter:R:1:center_of_mass:R:3:gyration_radius:R:1
Si 20174 69.12810 50.66660 61.21920 25164 0.00000 69.34705 51.41720 60.33070 1.1835420197441233
Si 25164 69.56600 52.16780 59.44220 25164 0.00000 69.34705 51.41720 60.33070 1.1835420197441233
2
Lattice="66.2574 0.0 0.0 0.0 66.2574 0.0 0.0 0.0 66.2574" Properties=species:S:1:index:I:1:pos:R:3:cluster_id:I:1:order_parameter:R:1:center_of_mass:R:3:gyration_radius:R:1
Si 20371 59.02950 41.29740 11.54730 20744 0.00000 59.40230 42.16605 12.59620 1.4119928726803115
Si 20744 59.77510 43.03470 13.64510 20744 0.00000 59.40230 42.16605 12.59620 1.4119928726803115
2
Lattice="66.2574 0.0 0.0 0.0 66.2574 0.0 0.0 0.0 66.2574" Properties=species:S:1:index:I:1:pos:R:3:cluster_id:I:1:order_parameter:R:1:center_of_mass:R:3:gyration_radius:R:1
Si 20461 45.70340 18.04310 29.23480 23260 0.00000 45.25595 17.44840 28.19995 1.274674121099193
Si 23260 44.80850 16.85370 27.16510 23260 0.00000 45.25595 17.44840 28.19995 1.274674121099193
2
Lattice="66.2574 0.0 0.0 0.0 66.2574 0.0 0.0 0.0 66.2574" Properties=species:S:1:index:I:1:pos:R:3:cluster_id:I:1:order_parameter:R:1:center_of_mass:R:3:gyration_radius:R:1
Si 20604 30.15060 61.98410 11.72290 22940 0.00000 29.13705 61.25065 11.20880 1.3526016837931252
Si 22940 28.12350 60.51720 10.69470 22940 0.00000 29.13705 61.25065 11.20880 1.3526016837931252
2
Lattice="66.2574 0.0 0.0 0.0 66.2574 0.0 0.0 0.0 66.2574" Properties=species:S:1:index:I:1:pos:R:3:cluster_id:I:1:order_parameter:R:1:center_of_mass:R:3:gyration_radius:R:1
Si 20666 63.98460 18.79720 32.60940 22972 0.00000 64.85445 17.97080 32.65340 1.2006298274239227
Si 22972 65.72430 17.14440 32.69740 22972 0.00000 64.85445 17.97080 32.65340 1.2006298274239227
2
Lattice="66.2574 0.0 0.0 0.0 66.2574 0.0 0.0 0.0 66.2574" Properties=species:S:1:index:I:1:pos:R:3:cluster_id:I:1:order_parameter:R:1:center_of_mass:R:3:gyration_radius:R:1
Si 20718 37.85560 52.71260 27.47740 26386 0.00000 36.81700 53.43260 27.37530 1.2678779002727365
Si 26386 35.77840 54.15260 27.27320 26386 0.00000 36.81700 53.43260 27.37530 1.2678779002727365
2
Lattice="66.2574 0.0 0.0 0.0 66.2574 0.0 0.0 0.0 66.2574" Properties=species:S:1:index:I:1:pos:R:3:cluster_id:I:1:order_parameter:R:1:center_of_mass:R:3:gyration_radius:R:1
Si 20769 5.02989 33.56150 62.23660 23409 0.00000 5.38261 33.19850 61.16830 1.182137392871489
Si 23409 5.73534 32.83550 60.10000 23409 0.00000 5.38261 33.19850 61.16830 1.182137392871489
2
Lattice="66.2574 0.0 0.0 0.0 66.2574 0.0 0.0 0.0 66.2574" Properties=species:S:1:index:I:1:pos:R:3:cluster_id:I:1:order_parameter:R:1:center_of_mass:R:3:gyration_radius:R:1
Si 20776 53.75840 23.82410 36.41600 24042 0.00000 55.30630 24.14755 35.91930 1.6575057171847076
Si 24042 56.85420 24.47100 35.42260 24042 0.00000 55.30630 24.14755 35.91930 1.6575057171847076
2
Lattice="66.2574 0.0 0.0 0.0 66.2574 0.0 0.0 0.0 66.2574" Properties=species:S:1:index:I:1:pos:R:3:cluster_id:I:1:order_parameter:R:1:center_of_mass:R:3:gyration_radius:R:1
Si 20816 53.26000 39.34950 33.81000 24419 0.00000 52.95390 39.68020 32.67760 1.218765547593138
Si 24419 52.64780 40.01090 31.54520 24419 0.00000 52.95390 39.68020 32.67760 1.218765547593138
2
Lattice="66.2574 0.0 0.0 0.0 66.2574 0.0 0.0 0.0 66.2574" Properties=species:S:1:index:I:1:pos:R:3:cluster_id:I:1:order_parameter:R:1:center_of_mass:R:3:gyration_radius:R:1
Si 20868 14.10870 59.18420 40.07240 25071 0.00000 14.08935 59.42110 38.94920 1.1480741581012972
Si 25071 14.07000 59.65800 37.82600 25071 0.00000 14.08935 59.42110 38.94920 1.1480741581012972
2
Lattice="66.2574 0.0 0.0 0.0 66.2574 0.0 0.0 0.0 66.2574" Properties=species:S:1:index:I:1:pos:R:3:cluster_id:I:1:order_parameter:R:1:center_of_mass:R:3:gyration_radius:R:1
Si 20893 11.03360 40.96870 40.53020 22078 0.00000 11.26655 40.19925 39.57055 1.2518974109327003
Si 22078 11.49950 39.42980 38.61090 22078 0.00000 11.26655 40.19925 39.57055 1.2518974109327003
2
Lattice="66.2574 0.0 0.0 0.0 66.2574 0.0 0.0 0.0 66.2574" Properties=species:S:1:index:I:1:pos:R:3:cluster_id:I:1:order_parameter:R:1:center_of_mass:R:3:gyration_radius:R:1
Si 21133 66.74930 34.47370 53.79170 25542 0.00000 67.61035 34.38310 52.92590 1.2244284799448264
Si 25542 68.47140 34.29250 52.06010 25542 0.00000 67.61035 34.38310 52.92590 1.2244284799448264
2
Lattice="66.2574 0.0 0.0 0.0 66.2574 0.0 0.0 0.0 66.2574" Properties=species:S:1:index:I:1:pos:R:3:cluster_id:I:1:order_parameter:R:1:center_of_mass:R:3:gyration_radius:R:1
Si 21263 8.95109 45.27650 44.97960 26329 0.00000 9.15589 46.27345 44.34930 1.1971334029777139
Si 26329 9.36068 47.27040 43.71900 26329 0.00000 9.15589 46.27345 44.34930 1.1971334029777139
2
Lattice="66.2574 0.0 0.0 0.0 66.2574 0.0 0.0 0.0 66.2574" Properties=species:S:1:index:I:1:pos:R:3:cluster_id:I:1:order_parameter:R:1:center_of_mass:R:3:gyration_radius:R:1
Si 21438 16.15220 65.56180 68.44420 26200 0.00000 16.75455 66.48225 69.13235 1.297537724885096
Si 26200 17.35690 67.40270 69.82050 26200 0.00000 16.75455 66.48225 69.13235 1.297537724885096
2
Lattice="66.2574 0.0 0.0 0.0 66.2574 0.0 0.0 0.0 66.2574" Properties=species:S:1:index:I:1:pos:R:3:cluster_id:I:1:order_parameter:R:1:center_of_mass:R:3:gyration_radius:R:1
Si 21789 21.64380 59.94910 20.40280 23883 0.00000 20.47975 59.63885 20.59000 1.2191436769306558
Si 23883 19.31570 59.32860 20.77720 23883 0.00000 20.47975 59.63885 20.59000 1.2191436769306558
2
Lattice="66.2574 0.0 0.0 0.0 66.2574 0.0 0.0 0.0 66.2574" Properties=species:S:1:index:I:1:pos:R:3:cluster_id:I:1:order_parameter:R:1:center_of_mass:R:3:gyration_radius:R:1
Si 21914 33.20320 16.30210 28.75590 23609 0.00000 33.41425 15.17025 28.29455 1.2403508969239307
Si 23609 33.62530 14.03840 27.83320 23609 0.00000 33.41425 15.17025 28.29455 1.2403508969239307
2
Lattice="66.2574 0.0 0.0 0.0 66.2574 0.0 0.0 0.0 66.2574" Properties=species:S:1:index:I:1:pos:R:3:cluster_id:I:1:order_parameter:R:1:center_of_mass:R:3:gyration_radius:R:1
Si 22168 55.64810 55.89250 44.79610 25659 0.00000 55.12395 57.01650 44.48290 1.2791416897670114
Si 25659 54.59980 58.14050 44.16970 25659 0.00000 55.12395 57.01650 44.48290 1.2791416897670114
2
Lattice="66.2574 0.0 0.0 0.0 66.2574 0.0 0.0 0.0 66.2574" Properties=species:S:1:index:I:1:pos:R:3:cluster_id:I:1:order_parameter:R:1:center_of_mass:R:3:gyration_radius:R:1
Si 22322 27.56840 29.02040 9.41805 23589 0.00000 27.90525 28.27580 8.46016 1.2591466692168942
Si 23589 28.24210 27.53120 7.50227 23589 0.00000 27.90525 28.27580 8.46016 1.2591466692168942
2
Lattice="66.2574 0.0 0.0 0.0 66.2574 0.0 0.0 0.0 66.2574" Properties=species:S:1:index:I:1:pos:R:3:cluster_id:I:1:order_parameter:R:1:center_of_mass:R:3:gyration_radius:R:1
Si 22473 63.11840 53.92400 49.24550 25300 0.00000 63.89345 55.01430 49.13605 1.3421758062936437
Si 25300 64.66850 56.10460 49.02660 25300 0.00000 63.89345 55.01430 49.13605 1.3421758062936437
2
Lattice="66.2574 0.0 0.0 0.0 66.2574 0.0 0.0 0.0 66.2574" Properties=species:S:1:index:I:1:pos:R:3:cluster_id:I:1:order_parameter:R:1:center_of_mass:R:3:gyration_radius:R:1
Si 22606 36.12650 62.41110 14.81890 26779 0.00000 35.38190 61.78000 15.59405 1.2464244431573048
Si 26779 34.63730 61.14890 16.36920 26779 0.00000 35.38190 61.78000 15.59405 1.2464244431573048
2
Lattice="66.2574 0.0 0.0 0.0 66.2574 0.0 0.0 0.0 66.2574" Properties=species:S:1:index:I:1:pos:R:3:cluster_id:I:1:order_parameter:R:1:center_of_mass:R:3:gyration_radius:R:1
Si 22622 42.95870 63.82550 6.98049 25877 0.00000 42.11970 63.73465 7.81915 1.189762037016225
Si 25877 41.28070 63.64380 8.65782 25877 0.00000 42.11970 63.73465 7.81915 1.189762037016225
2
Lattice="66.2574 0.0 0.0 0.0 66.2574 0.0 0.0 0.0 66.2574" Properties=species:S:1:index:I:1:pos:R:3:cluster_id:I:1:order_parameter:R:1:center_of_mass:R:3:gyration_radius:R:1
Si 22650 9.45240 55.69230 22.96990 25251 0.00000 8.35403 54.95110 23.17500 1.3408389624503774
Si 25251 7.25567 54.20990 23.38010 25251 0.00000 8.35403 54.95110 23.17500 1.3408389624503774
2
Lattice="66.2574 0.0 0.0 0.0 66.2574 0.0 0.0 0.0 66.2574" Properties=species:S:1:index:I:1:pos:R:3:cluster_id:I:1:order_parameter:R:1:center_of_mass:R:3:gyration_radius:R:1
Si 22774 23.54550 33.64560 38.02760 22935 0.00000 22.88380 32.89995 37.25000 1.2643190153201054
Si 22935 22.22210 32.15430 36.47240 22935 0.00000 22.88380 32.89995 37.25000 1.2643190153201054
2
Lattice="66.2574 0.0 0.0 0.0 66.2574 0.0 0.0 0.0 66.2574" Properties=species:S:1:index:I:1:pos:R:3:cluster_id:I:1:order_parameter:R:1:center_of_mass:R:3:gyration_radius:R:1
Si 22958 12.34730 37.79100 28.46500 25625 0.00000 11.46445 38.58785 28.43485 1.1896651072886038
Si 25625 10.58160 39.38470 28.40470 25625 0.00000 11.46445 38.58785 28.43485 1.1896651072886038
2
Lattice="66.2574 0.0 0.0 0.0 66.2574 0.0 0.0 0.0 66.2574" Properties=species:S:1:index:I:1:pos:R:3:cluster_id:I:1:order_parameter:R:1:center_of_mass:R:3:gyration_radius:R:1
Si 22964 12.80100 11.92210 69.97820 24758 0.00000 12.25215 11.72380 68.93685 1.1937206687496045
Si 24758 11.70330 11.52550 67.89550 24758 0.00000 12.25215 11.72380 68.93685 1.1937206687496045
2
Lattice="66.2574 0.0 0.0 0.0 66.2574 0.0 0.0 0.0 66.2574" Properties=species:S:1:index:I:1:pos:R:3:cluster_id:I:1:order_parameter:R:1:center_of_mass:R:3:gyration_radius:R:1
Si 22969 66.73850 50.05760 16.02620 25680 0.00000 65.20720 49.28930 16.13630 1.71676631781964
Si 25680 63.67590 48.52100 16.24640 25680 0.00000 65.20720 49.28930 16.13630 1.71676631781964
2
Lattice="66.2574 0.0 0.0 0.0 66.2574 0.0 0.0 0.0 66.2574" Properties=species:S:1:index:I:1:pos:R:3:cluster_id:I:1:order_parameter:R:1:center_of_mass:R:3:gyration_radius:R:1
Si 23050 11.72940 68.11670 29.76080 27102 0.00000 10.31603 68.47420 29.06175 1.6168109894867118
Si 27102 8.90267 68.83170 28.36270 27102 0.00000 10.31603 68.47420 29.06175 1.6168109894867118
2
Lattice="66.2574 0.0 0.0 0.0 66.2574 0.0 0.0 0.0 66.2574" Properties=species:S:1:index:I:1:pos:R:3:cluster_id:I:1:order_parameter:R:1:center_of_mass:R:3:gyration_radius:R:1
Si 23175 7.17066 68.46380 62.67270 26155 0.00000 7.95060 67.08485 62.16025 1.6650592506049176
Si 26155 8.73055 65.70590 61.64780 26155 0.00000 7.95060 67.08485 62.16025 1.6650592506049176
2
Lattice="66.2574 0.0 0.0 0.0 66.2574 0.0 0.0 0.0 66.2574" Properties=species:S:1:index:I:1:pos:R:3:cluster_id:I:1:order_parameter:R:1:center_of_mass:R:3:gyration_radius:R:1
Si 23618 48.30400 35.35950 59.91060 23674 0.00000 48.68880 36.99755 59.40075 1.7581882336655532
Si 23674 49.07360 38.63560 58.89090 23674 0.00000 48.68880 36.99755 59.40075 1.7581882336655532
2
Lattice="66.2574 0.0 0.0 0.0 66.2574 0.0 0.0 0.0 66.2574" Properties=species:S:1:index:I:1:pos:R:3:cluster_id:I:1:order_parameter:R:1:center_of_mass:R:3:gyration_radius:R:1
Si 23638 56.63890 65.70080 63.28710 24852 0.00000 57.73510 66.06630 62.47735 1.4110066450942031
Si 24852 58.83130 66.43180 61.66760 24852 0.00000 57.73510 66.06630 62.47735 1.4110066450942031
2
Lattice="66.2574 0.0 0.0 0.0 66.2574 0.0 0.0 0.0 66.2574" Properties=species:S:1:index:I:1:pos:R:3:cluster_id:I:1:order_parameter:R:1:center_of_mass:R:3:gyration_radius:R:1
Si 23778 10.78330 57.84930 67.39530 27032 0.00000 9.47947 57.85965 67.54315 1.3122268911663106
Si 27032 8.17564 57.87000 67.69100 27032 0.00000 9.47947 57.85965 67.54315 1.3122268911663106
2
Lattice="66.2574 0.0 0.0 0.0 66.2574 0.0 0.0 0.0 66.2574" Properties=species:S:1:index:I:1:pos:R:3:cluster_id:I:1:order_parameter:R:1:center_of_mass:R:3:gyration_radius:R:1
Si 23803 47.90120 27.39600 63.21490 23965 0.00000 46.84540 27.51410 63.79170 1.2088670274269215
Si 23965 45.78960 27.63220 64.36850 23965 0.00000 46.84540 27.51410 63.79170 1.2088670274269215
2
Lattice="66.2574 0.0 0.0 0.0 66.2574 0.0 0.0 0.0 66.2574" Properties=species:S:1:index:I:1:pos:R:3:cluster_id:I:1:order_parameter:R:1:center_of_mass:R:3:gyration_radius:R:1
Si 23864 10.21990 50.74500 20.45610 24980 0.00000 9.17868 49.59920 19.90620 1.6429810523557458
Si 24980 8.13746 48.45340 19.35630 24980 0.00000 9.17868 49.59920 19.90620 1.6429810523557458
2
Lattice="66.2574 0.0 0.0 0.0 66.2574 0.0 0.0 0.0 66.2574" Properties=species:S:1:index:I:1:pos:R:3:cluster_id:I:1:order_parameter:R:1:center_of_mass:R:3:gyration_radius:R:1
Si 23868 66.50750 42.14120 10.45820 26002 0.00000 67.30375 42.91225 9.39335 1.537022344502514
Si 26002 68.10000 43.68330 8.32850 26002 0.00000 67.30375 42.91225 9.39335 1.537022344502514
2
Lattice="66.2574 0.0 0.0 0.0 66.2574 0.0 0.0 0.0 66.2574" Properties=species:S:1:index:I:1:pos:R:3:cluster_id:I:1:order_parameter:R:1:center_of_mass:R:3:gyration_radius:R:1
Si 24646 14.03730 21.46500 58.51260 24882 0.00000 13.44120 22.47160 58.58640 1.1721882144092737
Si 24882 12.84510 23.47820 58.66020 24882 0.00000 13.44120 22.47160 58.58640 1.1721882144092737
2
Lattice="66.2574 0.0 0.0 0.0 66.2574 0.0 0.0 0.0 66.2574" Properties=species:S:1:index:I:1:pos:R:3:cluster_id:I:1:order_parameter:R:1:center_of_mass:R:3:gyration_radius:R:1
Si 24665 65.01740 68.04820 67.52620 27151 0.00000 65.68490 68.80200 68.20205 1.2126598502877917
Si 27151 66.35240 69.55580 68.87790 27151 0.00000 65.68490 68.80200 68.20205 1.2126598502877917
2
Lattice="66.2574 0.0 0.0 0.0 66.2574 0.0 0.0 0.0 66.2574" Properties=species:S:1:index:I:1:pos:R:3:cluster_id:I:1:order_parameter:R:1:center_of_mass:R:3:gyration_radius:R:1
Si 24814 20.34240 42.20280 8.13335 25397 0.00000 20.59585 43.32290 9.41357 1.719836318701577
Si 25397 20.84930 44.44300 10.69380 25397 0.00000 20.59585 43.32290 9.41357 1.719836318701577
2
Lattice="66.2574 0.0 0.0 0.0 66.2574 0.0 0.0 0.0 66.2574" Properties=species:S:1:index:I:1:pos:R:3:cluster_id:I:1:order_parameter:R:1:center_of_mass:R:3:gyration_radius:R:1
Si 25098 31.01140 52.00180 21.58730 25919 0.00000 30.69175 51.23115 22.71415 1.4020943147663076
Si 25919 30.37210 50.46050 23.84100 25919 0.00000 30.69175 51.23115 22.71415 1.4020943147663076
2
Lattice="66.2574 0.0 0.0 0.0 66.2574 0.0 0.0 0.0 66.2574" Properties=species:S:1:index:I:1:pos:R:3:cluster_id:I:1:order_parameter:R:1:center_of_mass:R:3:gyration_radius:R:1
Si 25139 49.91280 58.99970 33.80450 25290 0.00000 51.18320 59.69550 34.80425 1.7599868927068782
Si 25290 52.45360 60.39130 35.80400 25290 0.00000 51.18320 59.69550 34.80425 1.7599868927068782
2
Lattice="66.2574 0.0 0.0 0.0 66.2574 0.0 0.0 0.0 66.2574" Properties=species:S:1:index:I:1:pos:R:3:cluster_id:I:1:order_parameter:R:1:center_of_mass:R:3:gyration_radius:R:1
Si 25349 8.97837 10.76300 19.23550 26868 0.00000 8.41832 10.51525 18.23985 1.1689118818371207
Si 26868 7.85827 10.26750 17.24420 26868 0.00000 8.41832 10.51525 18.23985 1.1689118818371207
2
Lattice="66.2574 0.0 0.0 0.0 66.2574 0.0 0.0 0.0 66.2574" Properties=species:S:1:index:I:1:pos:R:3:cluster_id:I:1:order_parameter:R:1:center_of_mass:R:3:gyration_radius:R:1
Si 26422 10.85140 49.68710 66.10680 26775 0.00000 9.61543 49.24465 66.65960 1.4244154322826605
Si 26775 8.37947 48.80220 67.21240 26775 0.00000 9.61543 49.24465 66.65960 1.4244154322826605
2
Lattice="66.2574 0.0 0.0 0.0 66.2574 0.0 0.0 0.0 66.2574" Properties=species:S:1:index:I:1:pos:R:3:cluster_id:I:1:order_parameter:R:1:center_of_mass:R:3:gyration_radius:R:1
Si 26608 45.74110 28.97250 50.54550 26673 0.00000 46.60105 30.10225 51.59255 1.7641322987519956
Si 26673 47.46100 31.23200 52.63960 26673 0.00000 46.60105 30.10225 51.59255 1.7641322987519956
2
Lattice="66.2574 0.0 0.0 0.0 66.2574 0.0 0.0 0.0 66.2574" Properties=species:S:1:index:I:1:pos:R:3:cluster_id:I:1:order_parameter:R:1:center_of_mass:R:3:gyration_radius:R:1
Si 26736 64.30390 68.37060 47.85480 26820 0.00000 64.02505 67.33860 48.63735 1.3248267150838984
Si 26820 63.74620 66.30660 49.41990 26820 0.00000 64.02505 67.33860 48.63735 1.3248267150838984
