7
Lattice="66.2574 0.0 0.0 0.0 66.2574 0.0 0.0 0.0 66.2574" Properties=species:S:1:index:I:1:pos:R:3:cluster_id:I:1:order_parameter:R:1:center_of_mass:R:3:gyration_radius:R:1
Si 18553 27.93800 28.72640 48.02200 26788 0.00000 31.80396 26.49149 46.00470 3.6481248131396087
Si 24436 29.84410 26.88910 48.51220 26788 0.00000 31.80396 26.49149 46.00470 3.6481248131396087
Si 22756 31.66890 26.87440 46.44950 26788 0.00000 31.80396 26.49149 46.00470 3.6481248131396087
Si 19982 31.84810 27.27360 43.38380 26788 0.00000 31.80396 26.49149 46.00470 3.6481248131396087
Si 26788 34.09170 25.61240 46.42420 26788 0.00000 31.80396 26.49149 46.00470 3.6481248131396087
Si 25825 35.61260 24.18000 47.84210 26788 0.00000 31.80396 26.49149 46.00470 3.6481248131396087
Si 21981 31.62430 25.88450 41.39910 26788 0.00000 31.80396 26.49149 46.00470 3.6481248131396087
5
Lattice="66.2574 0.0 0.0 0.0 66.2574 0.0 0.0 0.0 66.2574" Properties=species:S:1:index:I:1:pos:R:3:cluster_id:I:1:order_parameter:R:1:center_of_mass:R:3:gyration_radius:R:1
Si 18424 23.19380 19.78810 28.98850 26426 0.00000 23.07328 21.27736 29.24570 2.657077041412235
Si 19266 22.98780 21.77910 27.50590 26426 0.00000 23.07328 21.27736 29.24570 2.657077041412235
Si 18694 21.53900 17.87240 29.91800 26426 0.00000 23.07328 21.27736 29.24570 2.657077041412235
Si 26983 23.26090 22.54020 30.71230 26426 0.00000 23.07328 21.27736 29.24570 2.657077041412235
Si 26426 24.38490 24.40700 29.10380 26426 0.00000 23.07328 21.27736 29.24570 2.657077041412235
5
Lattice="66.2574 0.0 0.0 0.0 66.2574 0.0 0.0 0.0 66.2574" Properties=species:S:1:index:I:1:pos:R:3:cluster_id:I:1:order_parameter:R:1:center_of_mass:R:3:gyration_radius:R:1
Si 18721 25.84330 8.76226 43.40700 26544 0.00000 24.27538 5.79396 43.95852 3.096837837345704
Si 23230 23.51430 6.67975 42.96210 26544 0.00000 24.27538 5.79396 43.95852 3.096837837345704
Si 21971 20.52440 5.03314 43.03160 26544 0.00000 24.27538 5.79396 43.95852 3.096837837345704
Si 26544 24.37840 5.18416 45.84000 26544 0.00000 24.27538 5.79396 43.95852 3.096837837345704
Si 22260 27.11650 3.31050 44.55190 26544 0.00000 24.27538 5.79396 43.95852 3.096837837345704
5
Lattice="66.2574 0.0 0.0 0.0 66.2574 0.0 0.0 0.0 66.2574" Properties=species:S:1:index:I:1:pos:R:3:cluster_id:I:1:order_parameter:R:1:center_of_mass:R:3:gyration_radius:R:1
Si 21133 66.62320 34.35700 53.86210 26994 0.00000 67.85108 35.71986 51.97804 2.432742071490523
Si 25180 67.99760 36.41850 54.16190 26994 0.00000 67.85108 35.71986 51.97804 2.432742071490523
Si 25542 68.46770 34.18870 52.13720 26994 0.00000 67.85108 35.71986 51.97804 2.432742071490523
Si 24719 67.34640 36.12570 50.62340 26994 0.00000 67.85108 35.71986 51.97804 2.432742071490523
Si 26994 68.82050 37.50940 49.10560 26994 0.00000 67.85108 35.71986 51.97804 2.432742071490523
4
Lattice="66.2574 0.0 0.0 0.0 66.2574 0.0 0.0 0.0 66.2574" Properties=species:S:1:index:I:1:pos:R:3:cluster_id:I:1:order_parameter:R:1:center_of_mass:R:3:gyration_radius:R:1
Si 19405 61.48170 15.67320 45.29540 22421 0.00000 61.28612 16.97837 45.75550 1.987626989339297
Si 21047 63.12640 16.78610 47.33100 22421 0.00000 61.28612 16.97837 45.75550 1.987626989339297
Si 24181 61.14920 18.37090 46.13230 22421 0.00000 61.28612 16.97837 45.75550 1.987626989339297
Si 22421 59.38720 17.08330 44.26330 22421 0.00000 61.28612 16.97837 45.75550 1.987626989339297
4
Lattice="66.2574 0.0 0.0 0.0 66.2574 0.0 0.0 0.0 66.2574" Properties=species:S:1:index:I:1:pos:R:3:cluster_id:I:1:order_parameter:R:1:center_of_mass:R:3:gyration_radius:R:1
Si 20475 39.99010 41.11600 18.84880 24274 0.00000 40.65675 40.97498 19.27323 2.159009522037825
Si 20748 39.66560 39.12310 17.33990 24274 0.00000 40.65675 40.97498 19.27323 2.159009522037825
Si 21332 40.47110 42.73390 20.97310 24274 0.00000 40.65675 40.97498 19.27323 2.159009522037825
Si 24274 42.50020 40.92690 19.93110 24274 0.00000 40.65675 40.97498 19.27323 2.159009522037825
4
Lattice="66.2574 0.0 0.0 0.0 66.2574 0.0 0.0 0.0 66.2574" Properties=species:S:1:index:I:1:pos:R:3:cluster_id:I:1:order_parameter:R:1:center_of_mass:R:3:gyration_radius:R:1
Si 20666 63.93970 18.87820 32.57050 25420 0.00000 64.58015 16.76152 31.22928 2.3277972777391946
Si 22972 65.71080 17.19560 32.80980 25420 0.00000 64.58015 16.76152 31.22928 2.3277972777391946
Si 20798 63.56070 15.89760 30.72780 25420 0.00000 64.58015 16.76152 31.22928 2.3277972777391946
Si 25420 65.10940 15.07470 28.80900 25420 0.00000 64.58015 16.76152 31.22928 2.3277972777391946
4
Lattice="66.2574 0.0 0.0 0.0 66.2574 0.0 0.0 0.0 66.2574" Properties=species:S:1:index:I:1:pos:R:3:cluster_id:I:1:order_parameter:R:1:center_of_mass:R:3:gyration_radius:R:1
Si 21753 8.59371 33.17820 6.63142 26630 0.00000 8.58292 34.21480 5.19243 2.8915772718784045
Si 23461 9.60612 35.30230 4.29141 26630 0.00000 8.58292 34.21480 5.19243 2.8915772718784045
Si 26630 6.66328 32.88200 8.02381 26630 0.00000 8.58292 34.21480 5.19243 2.8915772718784045
Si 21961 9.46856 35.49670 1.82310 26630 0.00000 8.58292 34.21480 5.19243 2.8915772718784045
4
Lattice="66.2574 0.0 0.0 0.0 66.2574 0.0 0.0 0.0 66.2574" Properties=species:S:1:index:I:1:pos:R:3:cluster_id:I:1:order_parameter:R:1:center_of_mass:R:3:gyration_radius:R:1
Si 22650 9.60509 55.78570 22.89350 25251 0.00000 6.16245 54.36355 23.48942 2.7826517085315876
Si 25251 7.35935 54.36650 23.49770 25251 0.00000 6.16245 54.36355 23.48942 2.7826517085315876
Si 24838 4.71407 54.50880 23.35340 25251 0.00000 6.16245 54.36355 23.48942 2.7826517085315876
Si 25715 2.97130 52.79320 24.21310 25251 0.00000 6.16245 54.36355 23.48942 2.7826517085315876
4
Lattice="66.2574 0.0 0.0 0.0 66.2574 0.0 0.0 0.0 66.2574" Properties=species:S:1:index:I:1:pos:R:3:cluster_id:I:1:order_parameter:R:1:center_of_mass:R:3:gyration_radius:R:1
Si 23871 68.21080 56.69930 17.35800 26307 0.00000 69.26487 55.31785 16.46238 2.632240035149481
Si 24070 67.68340 54.80840 18.87670 26307 0.00000 69.26487 55.31785 16.46238 2.632240035149481
Si 26307 70.08770 54.84670 16.46270 26307 0.00000 69.26487 55.31785 16.46238 2.632240035149481
Si 24090 71.07759 54.91700 13.15210 26307 0.00000 69.26487 55.31785 16.46238 2.632240035149481
4
Lattice="66.2574 0.0 0.0 0.0 66.2574 0.0 0.0 0.0 66.2574" Properties=species:S:1:index:I:1:pos:R:3:cluster_id:I:1:order_parameter:R:1:center_of_mass:R:3:gyration_radius:R:1
Si 24776 69.04560 58.00260 10.16330 26124 0.00000 70.73537 57.59687 8.90430 2.292515454068687
Si 26160 71.10361 57.55180 8.14680 26124 0.00000 70.73537 57.59687 8.90430 2.292515454068687
Si 26124 71.25246 59.01640 10.83090 26124 0.00000 70.73537 57.59687 8.90430 2.292515454068687
Si 25778 71.53982 55.81670 6.47620 26124 0.00000 70.73537 57.59687 8.90430 2.292515454068687
3
Lattice="66.2574 0.0 0.0 0.0 66.2574 0.0 0.0 0.0 66.2574" Properties=species:S:1:index:I:1:pos:R:3:cluster_id:I:1:order_parameter:R:1:center_of_mass:R:3:gyration_radius:R:1
Si 18233 53.93430 41.22190 36.42290 24419 0.00000 53.33280 40.09063 34.06267 2.141385010791949
Si 20816 53.44720 39.18070 33.96800 24419 0.00000 53.33280 40.09063 34.06267 2.141385010791949
Si 24419 52.61690 39.86930 31.79710 24419 0.00000 53.33280 40.09063 34.06267 2.141385010791949
3
Lattice="66.2574 0.0 0.0 0.0 66.2574 0.0 0.0 0.0 66.2574" Properties=species:S:1:index:I:1:pos:R:3:cluster_id:I:1:order_parameter:R:1:center_of_mass:R:3:gyration_radius:R:1
Si 19364 35.69810 4.87741 32.42800 21534 0.00000 34.04677 4.11459 32.62333 1.6239348110274192
Si 22277 33.05920 2.58480 32.40390 21534 0.00000 34.04677 4.11459 32.62333 1.6239348110274192
Si 21534 33.38300 4.88155 33.03810 21534 0.00000 34.04677 4.11459 32.62333 1.6239348110274192
3
Lattice="66.2574 0.0 0.0 0.0 66.2574 0.0 0.0 0.0 66.2574" Properties=species:S:1:index:I:1:pos:R:3:cluster_id:I:1:order_parameter:R:1:center_of_mass:R:3:gyration_radius:R:1
Si 19584 22.66320 48.84610 11.06410 20402 0.00000 23.63437 48.92253 10.68684 2.228018123549866
Si 21094 25.75940 48.62380 12.45430 20402 0.00000 23.63437 48.92253 10.68684 2.228018123549866
Si 20402 22.48050 49.29770 8.54213 20402 0.00000 23.63437 48.92253 10.68684 2.228018123549866
3
Lattice="66.2574 0.0 0.0 0.0 66.2574 0.0 0.0 0.0 66.2574" Properties=species:S:1:index:I:1:pos:R:3:cluster_id:I:1:order_parameter:R:1:center_of_mass:R:3:gyration_radius:R:1
Si 19663 15.81840 39.12140 22.16680 22776 0.00000 15.72497 38.02287 21.11230 1.5947090971222448
Si 25501 17.03380 37.13630 20.92820 22776 0.00000 15.72497 38.02287 21.11230 1.5947090971222448
Si 22776 14.32270 37.81090 20.24190 22776 0.00000 15.72497 38.02287 21.11230 1.5947090971222448
3
Lattice="66.2574 0.0 0.0 0.0 66.2574 0.0 0.0 0.0 66.2574" Properties=species:S:1:index:I:1:pos:R:3:cluster_id:I:1:order_parameter:R:1:center_of_mass:R:3:gyration_radius:R:1
Si 19872 49.85820 33.14140 42.37450 26515 0.00000 50.08803 33.76843 44.67413 2.2470160821261027
Si 26515 51.33470 33.97130 44.41690 26515 0.00000 50.08803 33.76843 44.67413 2.2470160821261027
Si 20606 49.07120 34.19260 47.23100 26515 0.00000 50.08803 33.76843 44.67413 2.2470160821261027
3
Lattice="66.2574 0.0 0.0 0.0 66.2574 0.0 0.0 0.0 66.2574" Properties=species:S:1:index:I:1:pos:R:3:cluster_id:I:1:order_parameter:R:1:center_of_mass:R:3:gyration_radius:R:1
Si 20360 55.37080 43.28030 55.01340 25779 0.00000 56.10980 44.29737 55.67493 1.4083876518124483
Si 24281 55.87910 44.47840 57.00280 25779 0.00000 56.10980 44.29737 55.67493 1.4083876518124483
Si 25779 57.07950 45.13340 55.00860 25779 0.00000 56.10980 44.29737 55.67493 1.4083876518124483
3
Lattice="66.2574 0.0 0.0 0.0 66.2574 0.0 0.0 0.0 66.2574" Properties=species:S:1:index:I:1:pos:R:3:cluster_id:I:1:order_parameter:R:1:center_of_mass:R:3:gyration_radius:R:1
Si 20618 14.13140 46.94980 8.33328 22617 0.00000 14.65250 47.10073 7.73425 2.066848962911631
Si 26254 15.35620 49.38090 8.36255 22617 0.00000 14.65250 47.10073 7.73425 2.066848962911631
Si 22617 14.46990 44.97150 6.50692 22617 0.00000 14.65250 47.10073 7.73425 2.066848962911631
3
Lattice="66.2574 0.0 0.0 0.0 66.2574 0.0 0.0 0.0 66.2574" Properties=species:S:1:index:I:1:pos:R:3:cluster_id:I:1:order_parameter:R:1:center_of_mass:R:3:gyration_radius:R:1
Si 21274 38.40730 6.86186 55.90000 23213 0.00000 39.03870 7.06719 56.60733 2.0550977681582197
Si 22172 41.06110 6.07436 55.72960 23213 0.00000 39.03870 7.06719 56.60733 2.0550977681582197
Si 23213 37.64770 8.26535 58.19240 23213 0.00000 39.03870 7.06719 56.60733 2.0550977681582197
3
Lattice="66.2574 0.0 0.0 0.0 66.2574 0.0 0.0 0.0 66.2574" Properties=species:S:1:index:I:1:pos:R:3:cluster_id:I:1:order_parameter:R:1:center_of_mass:R:3:gyration_radius:R:1
Si 21491 9.82879 61.67980 35.18630 23215 0.00000 9.85977 63.75380 36.32923 2.1131604163379962
Si 23215 9.11883 64.01700 35.75150 23215 0.00000 9.85977 63.75380 36.32923 2.1131604163379962
Si 22939 10.63170 65.56460 38.04990 23215 0.00000 9.85977 63.75380 36.32923 2.1131604163379962
3
Lattice="66.2574 0.0 0.0 0.0 66.2574 0.0 0.0 0.0 66.2574" Properties=species:S:1:index:I:1:pos:R:3:cluster_id:I:1:order_parameter:R:1:center_of_mass:R:3:gyration_radius:R:1
Si 21552 51.71870 65.87530 15.86380 26900 0.00000 51.59610 64.21217 15.16677 1.6095733257951037
Si 21634 50.57850 64.09990 14.75490 26900 0.00000 51.59610 64.21217 15.16677 1.6095733257951037
Si 26900 52.49110 62.66130 14.88160 26900 0.00000 51.59610 64.21217 15.16677 1.6095733257951037
3
Lattice="66.2574 0.0 0.0 0.0 66.2574 0.0 0.0 0.0 66.2574" Properties=species:S:1:index:I:1:pos:R:3:cluster_id:I:1:order_parameter:R:1:center_of_mass:R:3:gyration_radius:R:1
Si 22322 27.52490 28.92010 9.54297 23589 0.00000 28.06533 27.78157 8.95775 1.4364167733402926
Si 23781 28.41560 26.71870 9.84699 23589 0.00000 28.06533 27.78157 8.95775 1.4364167733402926
Si 23589 28.25550 27.70590 7.48328 23589 0.00000 28.06533 27.78157 8.95775 1.4364167733402926
2
Lattice="66.2574 0.0 0.0 0.0 66.2574 0.0 0.0 0.0 66.2574" Properties=species:S:1:index:I:1:pos:R:3:cluster_id:I:1:order_parameter:R:1:center_of_mass:R:3:gyration_radius:R:1
Si 18181 58.30170 4.41209 5.73922 18296 0.00000 59.58060 3.77024 4.97008 1.6245388741501403
Si 18296 60.85950 3.12840 4.20094 18296 0.00000 59.58060 3.77024 4.97008 1.6245388741501403
2
Lattice="66.2574 0.0 0.0 0.0 66.2574 0.0 0.0 0.0 66.2574" Properties=species:S:1:index:I:1:pos:R:3:cluster_id:I:1:order_parameter:R:1:center_of_mass:R:3:gyration_radius:R:1
Si 18308 51.95600 6.85993 21.96880 27083 0.00000 52.60455 7.67250 23.35740 1.734674916922475
Si 27083 53.25310 8.48507 24.74600 27083 0.00000 52.60455 7.67250 23.35740 1.734674916922475
2
Lattice="66.2574 0.0 0.0 0.0 66.2574 0.0 0.0 0.0 66.2574" Properties=species:S:1:index:I:1:pos:R:3:cluster_id:I:1:order_parameter:R:1:center_of_mass:R:3:gyration_radius:R:1
Si 18453 37.97640 7.57251 38.16600 25725 0.00000 37.22600 6.77003 38.61405 1.1865172198076186
Si 25725 36.47560 5.96755 39.06210 25725 0.00000 37.22600 6.77003 38.61405 1.1865172198076186
2
Lattice="66.2574 0.0 0.0 0.0 66.2574 0.0 0.0 0.0 66.2574" Properties=species:S:1:index:I:1:pos:R:3:cluster_id:I:1:order_parameter:R:1:center_of_mass:R:3:gyration_radius:R:1
Si 18511 18.81500 15.19570 24.65500 22359 0.00000 18.46375 15.56405 25.72445 1.18439080860162
Si 22359 18.11250 15.93240 26.79390 22359 0.00000 18.46375 15.56405 25.72445 1.18439080860162
2
Lattice="66.2574 0.0 0.0 0.0 66.2574 0.0 0.0 0.0 66.2574" Properties=species:S:1:index:I:1:pos:R:3:cluster_id:I:1:order_parameter:R:1:center_of_mass:R:3:gyration_radius:R:1
Si 18569 45.93330 31.75970 67.20460 19927 0.00000 46.98430 31.68070 68.54505 1.7051827475376322
Si 19927 48.03530 31.60170 69.88550 19927 0.00000 46.98430 31.68070 68.54505 1.7051827475376322
2
Lattice="66.2574 0.0 0.0 0.0 66.2574 0.0 0.0 0.0 66.2574" Properties=species:S:1:index:I:1:pos:R:3:cluster_id:I:1:order_parameter:R:1:center_of_mass:R:3:gyration_radius:R:1
Si 18915 26.52820 17.12710 62.61460 24666 0.00000 27.21455 18.04385 62.10040 1.2553519526411725
Si 24666 27.90090 18.96060 61.58620 24666 0.00000 27.21455 18.04385 62.10040 1.2553519526411725
2
Lattice="66.2574 0.0 0.0 0.0 66.2574 0.0 0.0 0.0 66.2574" Properties=species:S:1:index:I:1:pos:R:3:cluster_id:I:1:order_parameter:R:1:center_of_mass:R:3:gyration_radius:R:1
Si 19216 52.03040 36.34110 65.64940 22358 0.00000 51.38960 36.76690 64.70765 1.2160688066470575
Si 22358 50.74880 37.19270 63.76590 22358 0.00000 51.38960 36.76690 64.70765 1.2160688066470575
2
Lattice="66.2574 0.0 0.0 0.0 66.2574 0.0 0.0 0.0 66.2574" Properties=species:S:1:index:I:1:pos:R:3:cluster_id:I:1:order_parameter:R:1:center_of_mass:R:3:gyration_radius:R:1
Si 19272 36.70410 15.42200 8.89386 23739 0.00000 35.79115 16.26720 8.84788 1.244972032908771
Si 23739 34.87820 17.11240 8.80189 23739 0.00000 35.79115 16.26720 8.84788 1.244972032908771
2
Lattice="66.2574 0.0 0.0 0.0 66.2574 0.0 0.0 0.0 66.2574" Properties=species:S:1:index:I:1:pos:R:3:cluster_id:I:1:order_parameter:R:1:center_of_mass:R:3:gyration_radius:R:1
Si 19417 47.87980 67.65350 54.27880 26245 0.00000 47.83700 66.70040 54.99200 1.1911698829302222
Si 26245 47.79420 65.74730 55.70520 26245 0.00000 47.83700 66.70040 54.99200 1.1911698829302222
2
Lattice="66.2574 0.0 0.0 0.0 66.2574 0.0 0.0 0.0 66.2574" Properties=species:S:1:index:I:1:pos:R:3:cluster_id:I:1:order_parameter:R:1:center_of_mass:R:3:gyration_radius:R:1
Si 19511 39.90270 53.56360 13.22510 21925 0.00000 41.18510 54.61590 13.88770 1.7863157083785597
Si 21925 42.46750 55.66820 14.55030 21925 0.00000 41.18510 54.61590 13.88770 1.7863157083785597
2
Lattice="66.2574 0.0 0.0 0.0 66.2574 0.0 0.0 0.0 66.2574" Properties=species:S:1:index:I:1:pos:R:3:cluster_id:I:1:order_parameter:R:1:center_of_mass:R:3:gyration_radius:R:1
Si 19537 32.44240 59.19910 66.10960 26511 0.00000 33.42070 58.69025 65.67885 1.183868563228202
Si 26511 34.39900 58.18140 65.24810 26511 0.00000 33.42070 58.69025 65.67885 1.183868563228202
2
Lattice="66.2574 0.0 0.0 0.0 66.2574 0.0 0.0 0.0 66.2574" Properties=species:S:1:index:I:1:pos:R:3:cluster_id:I:1:order_parameter:R:1:center_of_mass:R:3:gyration_radius:R:1
Si 19594 63.53520 45.48350 23.91420 20429 0.00000 62.46075 44.50290 23.85175 1.4559942187385235
Si 20429 61.38630 43.52230 23.78930 20429 0.00000 62.46075 44.50290 23.85175 1.4559942187385235
2
Lattice="66.2574 0.0 0.0 0.0 66.2574 0.0 0.0 0.0 66.2574" Properties=species:S:1:index:I:1:pos:R:3:cluster_id:I:1:order_parameter:R:1:center_of_mass:R:3:gyration_radius:R:1
Si 19827 26.39200 13.06030 44.86470 24498 0.00000 26.51920 13.11625 43.12835 1.7419017093395348
Si 24498 26.64640 13.17220 41.39200 24498 0.00000 26.51920 13.11625 43.12835 1.7419017093395348
2
Lattice="66.2574 0.0 0.0 0.0 66.2574 0.0 0.0 0.0 66.2574" Properties=species:S:1:index:I:1:pos:R:3:cluster_id:I:1:order_parameter:R:1:center_of_mass:R:3:gyration_radius:R:1
Si 19854 37.50930 67.28320 69.38550 22674 0.00000 37.43955 67.42375 68.18120 1.2144784292032498
Si 22674 37.36980 67.56430 66.97690 22674 0.00000 37.43955 67.42375 68.18120 1.2144784292032498
2
Lattice="66.2574 0.0 0.0 0.0 66.2574 0.0 0.0 0.0 66.2574" Properties=species:S:1:index:I:1:pos:R:3:cluster_id:I:1:order_parameter:R:1:center_of_mass:R:3:gyration_radius:R:1
Si 19891 60.57390 48.70940 35.13750 25159 0.00000 61.72210 49.14495 35.58930 1.3085068905053563
Si 25159 62.87030 49.58050 36.04110 25159 0.00000 61.72210 49.14495 35.58930 1.3085068905053563
2
Lattice="66.2574 0.0 0.0 0.0 66.2574 0.0 0.0 0.0 66.2574" Properties=species:S:1:index:I:1:pos:R:3:cluster_id:I:1:order_parameter:R:1:center_of_mass:R:3:gyration_radius:R:1
Si 20043 39.12440 13.03510 42.35330 23424 0.00000 39.06275 13.56335 43.40975 1.182765990168809
Si 23424 39.00110 14.09160 44.46620 23424 0.00000 39.06275 13.56335 43.40975 1.182765990168809
2
Lattice="66.2574 0.0 0.0 0.0 66.2574 0.0 0.0 0.0 66.2574" Properties=species:S:1:index:I:1:pos:R:3:cluster_id:I:1:order_parameter:R:1:center_of_mass:R:3:gyration_radius:R:1
Si 20086 45.42050 46.38290 14.60030 22673 0.00000 45.91820 45.58765 13.33090 1.5784499398143739
Si 22673 46.41590 44.79240 12.06150 22673 0.00000 45.91820 45.58765 13.33090 1.5784499398143739
2
Lattice="66.2574 0.0 0.0 0.0 66.2574 0.0 0.0 0.0 66.2574" Properties=species:S:1:index:I:1:pos:R:3:cluster_id:I:1:order_parameter:R:1:center_of_mass:R:3:gyration_radius:R:1
Si 20174 69.16440 50.60900 61.19420 25164 0.00000 69.48530 51.35680 60.31050 1.2012940272889066
Si 25164 69.80620 52.10460 59.42680 25164 0.00000 69.48530 51.35680 60.31050 1.2012940272889066
2
Lattice="66.2574 0.0 0.0 0.0 66.2574 0.0 0.0 0.0 66.2574" Properties=species:S:1:index:I:1:pos:R:3:cluster_id:I:1:order_parameter:R:1:center_of_mass:R:3:gyration_radius:R:1
Si 20238 10.92920 11.24940 16.74550 26868 0.00000 9.39946 10.75130 16.89750 1.6159554689408986
Si 26868 7.86972 10.25320 17.04950 26868 0.00000 9.39946 10.75130 16.89750 1.6159554689408986
2
Lattice="66.2574 0.0 0.0 0.0 66.2574 0.0 0.0 0.0 66.2574" Properties=species:S:1:index:I:1:pos:R:3:cluster_id:I:1:order_parameter:R:1:center_of_mass:R:3:gyration_radius:R:1
Si 20344 56.84660 24.35850 60.47140 24972 0.00000 57.83995 23.08850 60.46575 1.6123511233599206
Si 24972 58.83330 21.81850 60.46010 24972 0.00000 57.83995 23.08850 60.46575 1.6123511233599206
2
Lattice="66.2574 0.0 0.0 0.0 66.2574 0.0 0.0 0.0 66.2574" Properties=species:S:1:index:I:1:pos:R:3:cluster_id:I:1:order_parameter:R:1:center_of_mass:R:3:gyration_radius:R:1
Si 20371 58.99330 41.28840 11.53600 20744 0.00000 59.39050 42.13230 12.62600 1.4345853233600285
Si 20744 59.78770 42.97620 13.71600 20744 0.00000 59.39050 42.13230 12.62600 1.4345853233600285
2
Lattice="66.2574 0.0 0.0 0.0 66.2574 0.0 0.0 0.0 66.2574" Properties=species:S:1:index:I:1:pos:R:3:cluster_id:I:1:order_parameter:R:1:center_of_mass:R:3:gyration_radius:R:1
Si 20461 45.46770 17.98430 29.18890 23260 0.00000 45.02915 17.46235 28.18805 1.2109742472488831
Si 23260 44.59060 16.94040 27.18720 23260 0.00000 45.02915 17.46235 28.18805 1.2109742472488831
2
Lattice="66.2574 0.0 0.0 0.0 66.2574 0.0 0.0 0.0 66.2574" Properties=species:S:1:index:I:1:pos:R:3:cluster_id:I:1:order_parameter:R:1:center_of_mass:R:3:gyration_radius:R:1
Si 20604 30.11760 61.88480 11.59900 22940 0.00000 29.08140 61.22530 11.10675 1.3232387360185598
Si 22940 28.04520 60.56580 10.61450 22940 0.00000 29.08140 61.22530 11.10675 1.3232387360185598
2
Lattice="66.2574 0.0 0.0 0.0 66.2574 0.0 0.0 0.0 66.2574" Properties=species:S:1:index:I:1:pos:R:3:cluster_id:I:1:order_parameter:R:1:center_of_mass:R:3:gyration_radius:R:1
Si 20718 37.68430 52.65200 27.51960 26386 0.00000 36.73580 53.44560 27.47465 1.2375272572755702
Si 26386 35.78730 54.23920 27.42970 26386 0.00000 36.73580 53.44560 27.47465 1.2375272572755702
2
Lattice="66.2574 0.0 0.0 0.0 66.2574 0.0 0.0 0.0 66.2574" Properties=species:S:1:index:I:1:pos:R:3:cluster_id:I:1:order_parameter:R:1:center_of_mass:R:3:gyration_radius:R:1
Si 20769 5.12660 33.58500 62.22220 23409 0.00000 5.45789 33.22975 61.15320 1.1741890561255452
Si 23409 5.78919 32.87450 60.08420 23409 0.00000 5.45789 33.22975 61.15320 1.1741890561255452
2
Lattice="66.2574 0.0 0.0 0.0 66.2574 0.0 0.0 0.0 66.2574" Properties=species:S:1:index:I:1:pos:R:3:cluster_id:I:1:order_parameter:R:1:center_of_mass:R:3:gyration_radius:R:1
Si 20776 53.69080 23.80030 36.26350 24042 0.00000 55.23740 24.05685 35.92825 1.603178725220614
Si 24042 56.78400 24.31340 35.59300 24042 0.00000 55.23740 24.05685 35.92825 1.603178725220614
2
Lattice="66.2574 0.0 0.0 0.0 66.2574 0.0 0.0 0.0 66.2574" Properties=species:S:1:index:I:1:pos:R:3:cluster_id:I:1:order_parameter:R:1:center_of_mass:R:3:gyration_radius:R:1
Si 20893 11.06430 41.06700 40.54860 22078 0.00000 11.26100 40.23180 39.61865 1.2653287843481646
Si 22078 11.45770 39.39660 38.68870 22078 0.00000 11.26100 40.23180 39.61865 1.2653287843481646
2
Lattice="66.2574 0.0 0.0 0.0 66.2574 0.0 0.0 0.0 66.2574" Properties=species:S:1:index:I:1:pos:R:3:cluster_id:I:1:order_parameter:R:1:center_of_mass:R:3:gyration_radius:R:1
Si 21229 34.52630 42.04610 49.14010 24943 0.00000 35.69970 41.91255 48.79925 1.2291793542848015
Si 24943 36.87310 41.77900 48.45840 24943 0.00000 35.69970 41.91255 48.79925 1.2291793542848015
2
Lattice="66.2574 0.0 0.0 0.0 66.2574 0.0 0.0 0.0 66.2574" Properties=species:S:1:index:I:1:pos:R:3:cluster_id:I:1:order_parameter:R:1:center_of_mass:R:3:gyration_radius:R:1
Si 21263 8.86244 45.15810 44.94660 26329 0.00000 9.06827 46.23005 44.33660 1.2504178700438513
Si 26329 9.27411 47.30200 43.72660 26329 0.00000 9.06827 46.23005 44.33660 1.2504178700438513
2
Lattice="66.2574 0.0 0.0 0.0 66.2574 0.0 0.0 0.0 66.2574" Properties=species:S:1:index:I:1:pos:R:3:cluster_id:I:1:order_parameter:R:1:center_of_mass:R:3:gyration_radius:R:1
Si 21438 16.24290 65.58710 68.40330 26200 0.00000 16.71735 66.47940 69.11845 1.2380394238472376
Si 26200 17.19180 67.37170 69.83360 26200 0.00000 16.71735 66.47940 69.11845 1.2380394238472376
2
Lattice="66.2574 0.0 0.0 0.0 66.2574 0.0 0.0 0.0 66.2574" Properties=species:S:1:index:I:1:pos:R:3:cluster_id:I:1:order_parameter:R:1:center_of_mass:R:3:gyration_radius:R:1
Si 21789 21.50620 59.88180 20.35320 23883 0.00000 20.38590 59.63380 20.53610 1.1619072682447595
Si 23883 19.26560 59.38580 20.71900 23883 0.00000 20.38590 59.63380 20.53610 1.1619072682447595
2
Lattice="66.2574 0.0 0.0 0.0 66.2574 0.0 0.0 0.0 66.2574" Properties=species:S:1:index:I:1:pos:R:3:cluster_id:I:1:order_parameter:R:1:center_of_mass:R:3:gyration_radius:R:1
Si 21914 33.27990 16.31340 28.70780 23609 0.00000 33.47150 15.23245 28.26980 1.1819507022291584
Si 23609 33.66310 14.15150 27.83180 23609 0.00000 33.47150 15.23245 28.26980 1.1819507022291584
2
Lattice="66.2574 0.0 0.0 0.0 66.2574 0.0 0.0 0.0 66.2574" Properties=species:S:1:index:I:1:pos:R:3:cluster_id:I:1:order_parameter:R:1:center_of_mass:R:3:gyration_radius:R:1
Si 22012 20.22840 50.58070 36.46140 22209 0.00000 18.57385 50.54840 36.27365 1.6654816285387242
Si 22209 16.91930 50.51610 36.08590 22209 0.00000 18.57385 50.54840 36.27365 1.6654816285387242
2
Lattice="66.2574 0.0 0.0 0.0 66.2574 0.0 0.0 0.0 66.2574" Properties=species:S:1:index:I:1:pos:R:3:cluster_id:I:1:order_parameter:R:1:center_of_mass:R:3:gyration_radius:R:1
Si 22168 55.49650 55.75600 44.76230 25659 0.00000 55.04920 56.92665 44.46985 1.2868666267333209
Si 25659 54.60190 58.09730 44.17740 25659 0.00000 55.04920 56.92665 44.46985 1.2868666267333209
2
Lattice="66.2574 0.0 0.0 0.0 66.2574 0.0 0.0 0.0 66.2574" Properties=species:S:1:index:I:1:pos:R:3:cluster_id:I:1:order_parameter:R:1:center_of_mass:R:3:gyration_radius:R:1
Si 22606 35.96890 62.50140 14.69080 26779 0.00000 35.32545 61.77950 15.52525 1.2772917892948326
Si 26779 34.68200 61.05760 16.35970 26779 0.00000 35.32545 61.77950 15.52525 1.2772917892948326
2
Lattice="66.2574 0.0 0.0 0.0 66.2574 0.0 0.0 0.0 66.2574" Properties=species:S:1:index:I:1:pos:R:3:cluster_id:I:1:order_parameter:R:1:center_of_mass:R:3:gyration_radius:R:1
Si 22774 23.35360 33.73340 37.98170 22935 0.00000 22.84085 32.95330 37.29320 1.1599572502898539
Si 22935 22.32810 32.17320 36.60470 22935 0.00000 22.84085 32.95330 37.29320 1.1599572502898539
2
Lattice="66.2574 0.0 0.0 0.0 66.2574 0.0 0.0 0.0 66.2574" Properties=species:S:1:index:I:1:pos:R:3:cluster_id:I:1:order_parameter:R:1:center_of_mass:R:3:gyration_radius:R:1
Si 22958 12.26870 37.71460 28.55650 25625 0.00000 11.37565 38.51200 28.38940 1.2088455122553918
Si 25625 10.48260 39.30940 28.22230 25625 0.00000 11.37565 38.51200 28.38940 1.2088455122553918
2
Lattice="66.2574 0.0 0.0 0.0 66.2574 0.0 0.0 0.0 66.2574" Properties=species:S:1:index:I:1:pos:R:3:cluster_id:I:1:order_parameter:R:1:center_of_mass:R:3:gyration_radius:R:1
Si 22964 12.75510 11.78920 69.91090 24758 0.00000 12.27320 11.64550 68.81375 1.206903236593555
Si 24758 11.79130 11.50180 67.71660 24758 0.00000 12.27320 11.64550 68.81375 1.206903236593555
2
Lattice="66.2574 0.0 0.0 0.0 66.2574 0.0 0.0 0.0 66.2574" Properties=species:S:1:index:I:1:pos:R:3:cluster_id:I:1:order_parameter:R:1:center_of_mass:R:3:gyration_radius:R:1
Si 23050 11.79760 68.29660 29.70120 27102 0.00000 10.33685 68.54475 28.91785 1.6760133695842052
Si 27102 8.87609 68.79290 28.13450 27102 0.00000 10.33685 68.54475 28.91785 1.6760133695842052
2
Lattice="66.2574 0.0 0.0 0.0 66.2574 0.0 0.0 0.0 66.2574" Properties=species:S:1:index:I:1:pos:R:3:cluster_id:I:1:order_parameter:R:1:center_of_mass:R:3:gyration_radius:R:1
Si 23113 59.21340 54.95940 25.14430 24203 0.00000 59.59855 54.82905 24.06570 1.1526966665172582
Si 24203 59.98370 54.69870 22.98710 24203 0.00000 59.59855 54.82905 24.06570 1.1526966665172582
2
Lattice="66.2574 0.0 0.0 0.0 66.2574 0.0 0.0 0.0 66.2574" Properties=species:S:1:index:I:1:pos:R:3:cluster_id:I:1:order_parameter:R:1:center_of_mass:R:3:gyration_radius:R:1
Si 23175 7.21001 68.36880 62.68850 26155 0.00000 7.91362 67.00675 62.13460 1.6300467614764886
Si 26155 8.61723 65.64470 61.58070 26155 0.00000 7.91362 67.00675 62.13460 1.6300467614764886
2
Lattice="66.2574 0.0 0.0 0.0 66.2574 0.0 0.0 0.0 66.2574" Properties=species:S:1:index:I:1:pos:R:3:cluster_id:I:1:order_parameter:R:1:center_of_mass:R:3:gyration_radius:R:1
Si 23503 28.00180 57.85520 40.61570 25138 0.00000 28.04355 56.96440 41.60600 1.3326521648577345
Si 25138 28.08530 56.07360 42.59630 25138 0.00000 28.04355 56.96440 41.60600 1.3326521648577345
2
Lattice="66.2574 0.0 0.0 0.0 66.2574 0.0 0.0 0.0 66.2574" Properties=species:S:1:index:I:1:pos:R:3:cluster_id:I:1:order_parameter:R:1:center_of_mass:R:3:gyration_radius:R:1
Si 23618 48.13010 35.39840 59.94490 23674 0.00000 48.60035 37.00090 59.33770 1.7770293054702266
Si 23674 49.07060 38.60340 58.73050 23674 0.00000 48.60035 37.00090 59.33770 1.7770293054702266
2
Lattice="66.2574 0.0 0.0 0.0 66.2574 0.0 0.0 0.0 66.2574" Properties=species:S:1:index:I:1:pos:R:3:cluster_id:I:1:order_parameter:R:1:center_of_mass:R:3:gyration_radius:R:1
Si 23770 10.98230 16.18220 18.33940 24360 0.00000 10.63695 17.29745 18.93165 1.3091253750118814
Si 24360 10.29160 18.41270 19.52390 24360 0.00000 10.63695 17.29745 18.93165 1.3091253750118814
2
Lattice="66.2574 0.0 0.0 0.0 66.2574 0.0 0.0 0.0 66.2574" Properties=species:S:1:index:I:1:pos:R:3:cluster_id:I:1:order_parameter:R:1:center_of_mass:R:3:gyration_radius:R:1
Si 23778 10.81020 57.70260 67.34310 27032 0.00000 9.46699 57.72880 67.51465 1.3543740054357212
Si 27032 8.12378 57.75500 67.68620 27032 0.00000 9.46699 57.72880 67.51465 1.3543740054357212
2
Lattice="66.2574 0.0 0.0 0.0 66.2574 0.0 0.0 0.0 66.2574" Properties=species:S:1:index:I:1:pos:R:3:cluster_id:I:1:order_parameter:R:1:center_of_mass:R:3:gyration_radius:R:1
Si 23803 47.66890 27.35480 63.26860 23965 0.00000 46.62800 27.60285 63.85005 1.217820066758633
Si 23965 45.58710 27.85090 64.43150 23965 0.00000 46.62800 27.60285 63.85005 1.217820066758633
2
Lattice="66.2574 0.0 0.0 0.0 66.2574 0.0 0.0 0.0 66.2574" Properties=species:S:1:index:I:1:pos:R:3:cluster_id:I:1:order_parameter:R:1:center_of_mass:R:3:gyration_radius:R:1
Si 23864 10.13070 50.78820 20.60670 24980 0.00000 9.11975 49.69175 19.98595 1.6154111140821088
Si 24980 8.10880 48.59530 19.36520 24980 0.00000 9.11975 49.69175 19.98595 1.6154111140821088
2
Lattice="66.2574 0.0 0.0 0.0 66.2574 0.0 0.0 0.0 66.2574" Properties=species:S:1:index:I:1:pos:R:3:cluster_id:I:1:order_parameter:R:1:center_of_mass:R:3:gyration_radius:R:1
Si 24008 16.97000 46.77140 29.42730 24052 0.00000 18.31450 45.39925 29.22580 1.931599886751913
Si 24052 19.65900 44.02710 29.02430 24052 0.00000 18.31450 45.39925 29.22580 1.931599886751913
2
Lattice="66.2574 0.0 0.0 0.0 66.2574 0.0 0.0 0.0 66.2574" Properties=species:S:1:index:I:1:pos:R:3:cluster_id:I:1:order_parameter:R:1:center_of_mass:R:3:gyration_radius:R:1
Si 24088 9.89333 19.47380 64.09480 24919 0.00000 10.21812 19.31975 62.40820 1.724481446326694
Si 24919 10.54290 19.16570 60.72160 24919 0.00000 10.21812 19.31975 62.40820 1.724481446326694
2
Lattice="66.2574 0.0 0.0 0.0 66.2574 0.0 0.0 0.0 66.2574" Properties=species:S:1:index:I:1:pos:R:3:cluster_id:I:1:order_parameter:R:1:center_of_mass:R:3:gyration_radius:R:1
Si 24646 14.04130 21.51330 58.39860 24882 0.00000 13.44920 22.54700 58.57380 1.2040818659875243
Si 24882 12.85710 23.58070 58.74900 24882 0.00000 13.44920 22.54700 58.57380 1.2040818659875243
2
Lattice="66.2574 0.0 0.0 0.0 66.2574 0.0 0.0 0.0 66.2574" Properties=species:S:1:index:I:1:pos:R:3:cluster_id:I:1:order_parameter:R:1:center_of_mass:R:3:gyration_radius:R:1
Si 24665 64.90210 68.04710 67.24990 27151 0.00000 65.57715 68.73010 67.98765 1.2109733956615214
Si 27151 66.25220 69.41310 68.72540 27151 0.00000 65.57715 68.73010 67.98765 1.2109733956615214
2
Lattice="66.2574 0.0 0.0 0.0 66.2574 0.0 0.0 0.0 66.2574" Properties=species:S:1:index:I:1:pos:R:3:cluster_id:I:1:order_parameter:R:1:center_of_mass:R:3:gyration_radius:R:1
Si 24814 20.46990 42.26320 8.24492 25397 0.00000 20.68640 43.35755 9.49111 1.672562013379475
Si 25397 20.90290 44.45190 10.73730 25397 0.00000 20.68640 43.35755 9.49111 1.672562013379475
2
Lattice="66.2574 0.0 0.0 0.0 66.2574 0.0 0.0 0.0 66.2574" Properties=species:S:1:index:I:1:pos:R:3:cluster_id:I:1:order_parameter:R:1:center_of_mass:R:3:gyration_radius:R:1
Si 25139 50.14030 58.94770 33.91080 25290 0.00000 51.31985 59.52395 34.88875 1.63700594607961
Si 25290 52.49940 60.10020 35.86670 25290 0.00000 51.31985 59.52395 34.88875 1.63700594607961
2
Lattice="66.2574 0.0 0.0 0.0 66.2574 0.0 0.0 0.0 66.2574" Properties=species:S:1:index:I:1:pos:R:3:cluster_id:I:1:order_parameter:R:1:center_of_mass:R:3:gyration_radius:R:1
Si 26422 10.89110 49.74390 66.14000 26775 0.00000 9.70602 49.27875 66.74485 1.4094760201578447
Si 26775 8.52094 48.81360 67.34970 26775 0.00000 9.70602 49.27875 66.74485 1.4094760201578447
2
Lattice="66.2574 0.0 0.0 0.0 66.2574 0.0 0.0 0.0 66.2574" Properties=species:S:1:index:I:1:pos:R:3:cluster_id:I:1:order_parameter:R:1:center_of_mass:R:3:gyration_radius:R:1
Si 26608 45.59570 28.87890 50.72790 26673 0.00000 46.45610 30.04300 51.73105 1.7611720224043985
Si 26673 47.31650 31.20710 52.73420 26673 0.00000 46.45610 30.04300 51.73105 1.7611720224043985
2
Lattice="66.2574 0.0 0.0 0.0 66.2574 0.0 0.0 0.0 66.2574" Properties=species:S:1:index:I:1:pos:R:3:cluster_id:I:1:order_parameter:R:1:center_of_mass:R:3:gyration_radius:R:1
Si 26736 64.38500 68.35580 47.85580 26820 0.00000 64.16735 67.33245 48.68640 1.3358566932871216
Si 26820 63.94970 66.30910 49.51700 26820 0.00000 64.16735 67.33245 48.68640 1.3358566932871216
